64 
(16,0) carbon nanotube structure generated by TubeASP. Author: R.G.A. Veiga, Universidade Federal de Uberlandia, Brazil. Corrections/updates: David Tomanek, MSU, 2007; Nicholas Frederick, MSU, 2012.
 C  6.2631         0.0000         0.0000         
 C  6.1428         1.2219         0.7100         
 C  5.7863         2.3968         0.0000         
 C  5.2076         3.4796         0.7100         
 C  4.4287         4.4287         0.0000         
 C  3.4796         5.2076         0.7100         
 C  2.3968         5.7863         0.0000         
 C  1.2219         6.1428         0.7100         
 C  0.0000         6.2631         0.0000         
 C  -1.2219        6.1428         0.7100         
 C  -2.3968        5.7863         0.0000         
 C  -3.4796        5.2076         0.7100         
 C  -4.4287        4.4287         0.0000         
 C  -5.2076        3.4796         0.7100         
 C  -5.7863        2.3968         0.0000         
 C  -6.1428        1.2219         0.7100         
 C  -6.2631        0.0000         0.0000         
 C  -6.1428        -1.2219        0.7100         
 C  -5.7863        -2.3968        0.0000         
 C  -5.2076        -3.4796        0.7100         
 C  -4.4287        -4.4287        0.0000         
 C  -3.4796        -5.2076        0.7100         
 C  -2.3968        -5.7863        0.0000         
 C  -1.2219        -6.1428        0.7100         
 C  -0.0000        -6.2631        0.0000         
 C  1.2219         -6.1428        0.7100         
 C  2.3968         -5.7863        0.0000         
 C  3.4796         -5.2076        0.7100         
 C  4.4287         -4.4287        0.0000         
 C  5.2076         -3.4796        0.7100         
 C  5.7863         -2.3968        0.0000         
 C  6.1428         -1.2219        0.7100         
 C  6.1428         1.2219         2.1300         
 C  5.7863         2.3968         2.8400         
 C  5.2076         3.4796         2.1300         
 C  4.4287         4.4287         2.8400         
 C  3.4796         5.2076         2.1300         
 C  2.3968         5.7863         2.8400         
 C  1.2219         6.1428         2.1300         
 C  0.0000         6.2631         2.8400         
 C  -1.2219        6.1428         2.1300         
 C  -2.3968        5.7863         2.8400         
 C  -3.4796        5.2076         2.1300         
 C  -4.4287        4.4287         2.8400         
 C  -5.2076        3.4796         2.1300         
 C  -5.7863        2.3968         2.8400         
 C  -6.1428        1.2219         2.1300         
 C  -6.2631        0.0000         2.8400         
 C  -6.1428        -1.2219        2.1300         
 C  -5.7863        -2.3968        2.8400         
 C  -5.2076        -3.4796        2.1300         
 C  -4.4287        -4.4287        2.8400         
 C  -3.4796        -5.2076        2.1300         
 C  -2.3968        -5.7863        2.8400         
 C  -1.2219        -6.1428        2.1300         
 C  0.0000         -6.2631        2.8400         
 C  1.2219         -6.1428        2.1300         
 C  2.3968         -5.7863        2.8400         
 C  3.4796         -5.2076        2.1300         
 C  4.4287         -4.4287        2.8400         
 C  5.2076         -3.4796        2.1300         
 C  5.7863         -2.3968        2.8400         
 C  6.1428         -1.2219        2.1300         
 C  6.2631         0.0000         2.8400         
